version 2
run AnsimMobility-0-20220602-20:05:44-12491
attr configname AnsimMobility
attr datetime 20220602-20:05:44
attr experiment AnsimMobility
attr inifile omnetpp.ini
attr iterationvars ""
attr iterationvarsf ""
attr measurement ""
attr network MobileNetwork
attr processid 12491
attr repetition 0
attr replication #0
attr resultdir results
attr runnumber 0
attr seedset 0
param **.host*.mobility.typename "\"AnsimMobility\""
param **.host*.mobility.ansimTrace "xmldoc(\"ansimtrace.xml\")"
param **.host*.mobility.nodeId -1
param *.numHosts 2
param **.constraintAreaMinX 0m
param **.constraintAreaMinY 0m
param **.constraintAreaMinZ 0m
param **.constraintAreaMaxX 600m
param **.constraintAreaMaxY 400m
param **.constraintAreaMaxZ 0m
param **.updateInterval 0.1s
param **.mobility.initFromDisplayString false

vector 0 MobileNetwork.host[0] coordX:vector ETV
attr interpolationmode linear
attr source xCoord(mobilityPos(mobilityStateChanged))
attr title "coord X, vector"
vector 1 MobileNetwork.host[0] coordY:vector ETV
attr interpolationmode linear
attr source yCoord(mobilityPos(mobilityStateChanged))
attr title "coord Y, vector"
vector 2 MobileNetwork.host[0] coordZ:vector ETV
attr interpolationmode linear
attr source zCoord(mobilityPos(mobilityStateChanged))
attr title "coord Z, vector"
vector 3 MobileNetwork.host[1] coordX:vector ETV
attr interpolationmode linear
attr source xCoord(mobilityPos(mobilityStateChanged))
attr title "coord X, vector"
vector 4 MobileNetwork.host[1] coordY:vector ETV
attr interpolationmode linear
attr source yCoord(mobilityPos(mobilityStateChanged))
attr title "coord Y, vector"
vector 5 MobileNetwork.host[1] coordZ:vector ETV
attr interpolationmode linear
attr source zCoord(mobilityPos(mobilityStateChanged))
attr title "coord Z, vector"
0	0	0	50
0	1	0.1	50
0	3	0.2	50
0	5	0.3	50
0	7	0.4	50
0	9	0.5	50
0	11	0.6	50
0	13	0.7	50
0	15	0.8	50
0	17	0.9	50
0	19	1	50
0	21	1.1	50
0	23	1.2	50
0	25	1.3	50
0	27	1.4	50
0	29	1.5	50
0	31	1.6	50
0	33	1.7	50
0	35	1.8	50
0	37	1.9	50
0	39	2	50
0	41	2.1	50
0	43	2.2	50
0	45	2.3	50
0	47	2.4	50
0	49	2.5	50
0	51	2.6	50
0	53	2.7	50
0	55	2.8	50
0	57	2.9	50
0	59	3	50
0	61	3.1	50
0	63	3.2	50
0	65	3.3	50
0	67	3.4	50
0	69	3.5	50
0	71	3.6	50
0	73	3.7	50
0	75	3.8	50
0	77	3.9	50
0	79	4	50
0	81	4.1	50
0	83	4.2	50
0	85	4.3	50
0	87	4.4	50
0	89	4.5	50
0	91	4.6	50
0	93	4.7	50
0	95	4.8	50
0	97	4.9	50
0	99	5	50
0	101	5.1	50
0	103	5.2	50
0	105	5.3	50
0	107	5.4	50
0	109	5.5	50
0	111	5.6	50
0	113	5.7	50
0	115	5.8	50
0	117	5.9	50
0	119	6	50
0	121	6.1	50
0	123	6.2	50
0	125	6.3	50
0	127	6.4	50
0	129	6.5	50
0	131	6.6	50
0	133	6.7	50
0	135	6.8	50
0	137	6.9	50
0	139	7	50
0	141	7.1	50
0	143	7.2	50
0	145	7.3	50
0	147	7.4	50
0	149	7.5	50
0	151	7.6	50
0	153	7.7	50
0	155	7.8	50
0	157	7.9	50
0	159	8	50
0	161	8.1	50
0	163	8.2	50
0	165	8.3	50
0	167	8.4	50
0	169	8.5	50
0	171	8.6	50
0	173	8.7	50
0	175	8.8	50
0	177	8.9	50
0	179	9	50
0	181	9.1	50
0	183	9.2	50
0	185	9.3	50
0	187	9.4	50
0	189	9.5	50
0	191	9.6	50
0	193	9.7	50
0	195	9.8	50
0	197	9.9	50
0	199	10	50
0	201	10.1	50.5
0	203	10.2	51
0	205	10.3	51.5
0	207	10.4	52
0	209	10.5	52.5
0	211	10.6	53
0	213	10.7	53.5
0	215	10.8	54
0	217	10.9	54.5
0	219	11	55
0	221	11.1	55.5
0	223	11.2	56
0	225	11.3	56.5
0	227	11.4	57
0	229	11.5	57.5
0	231	11.6	58
0	233	11.7	58.5
0	235	11.8	59
0	237	11.9	59.5
0	239	12	60
0	241	12.1	60.5
0	243	12.2	61
0	245	12.3	61.5
0	247	12.4	62
0	249	12.5	62.5
0	251	12.6	63
0	253	12.7	63.5
0	255	12.8	64
0	257	12.9	64.5
0	259	13	65
0	261	13.1	65.5
0	263	13.2	66
0	265	13.3	66.5
0	267	13.4	67
0	269	13.5	67.5
0	271	13.6	68
0	273	13.7	68.5
0	275	13.8	69
0	277	13.9	69.5
0	279	14	70
0	281	14.1	70.5
0	283	14.2	71
0	285	14.3	71.5
0	287	14.4	72
0	289	14.5	72.5
0	291	14.6	73
0	293	14.7	73.5
0	295	14.8	74
0	297	14.9	74.5
0	299	15	75
0	301	15.1	75.5
0	303	15.2	76
0	305	15.3	76.5
0	307	15.4	77
0	309	15.5	77.5
0	311	15.6	78
0	313	15.7	78.5
0	315	15.8	79
0	317	15.9	79.5
0	319	16	80
0	321	16.1	80.5
0	323	16.2	81
0	325	16.3	81.5
0	327	16.4	82
0	329	16.5	82.5
0	331	16.6	83
0	333	16.7	83.5
0	335	16.8	84
0	337	16.9	84.5
0	339	17	85
0	341	17.1	85.5
0	343	17.2	86
0	345	17.3	86.5
0	347	17.4	87
0	349	17.5	87.5
0	351	17.6	88
0	353	17.7	88.5
0	355	17.8	89
0	357	17.9	89.5
0	359	18	90
0	361	18.1	90.5
0	363	18.2	91
0	365	18.3	91.5
0	367	18.4	92
0	369	18.5	92.5
0	371	18.6	93
0	373	18.7	93.5
0	375	18.8	94
0	377	18.9	94.5
0	379	19	95
0	381	19.1	95.5
0	383	19.2	96
0	385	19.3	96.5
0	387	19.4	97
0	389	19.5	97.5
0	391	19.6	98
0	393	19.7	98.5
0	395	19.8	99
0	397	19.9	99.5
0	399	20	100
0	401	20.1	102
0	403	20.2	104
0	405	20.3	106
0	407	20.4	108
0	409	20.5	110
0	411	20.6	112
0	413	20.7	114
0	415	20.8	116
0	417	20.9	118
0	419	21	120
0	421	21.1	122
0	423	21.2	124
0	425	21.3	126
0	427	21.4	128
0	429	21.5	130
0	431	21.6	132
0	433	21.7	134
0	435	21.8	136
0	437	21.9	138
0	439	22	140
0	441	22.1	142
0	443	22.2	144
0	445	22.3	146
0	447	22.4	148
0	449	22.5	150
0	451	22.6	152
0	453	22.7	154
0	455	22.8	156
0	457	22.9	158
0	459	23	160
0	461	23.1	162
0	463	23.2	164
0	465	23.3	166
0	467	23.4	168
0	469	23.5	170
0	471	23.6	172
0	473	23.7	174
0	475	23.8	176
0	477	23.9	178
0	479	24	180
0	481	24.1	182
0	483	24.2	184
0	485	24.3	186
0	487	24.4	188
0	489	24.5	190
0	491	24.6	192
0	493	24.7	194
0	495	24.8	196
0	497	24.9	198
0	499	25	200
0	501	25.1	202
0	503	25.2	204
0	505	25.3	206
0	507	25.4	208
0	509	25.5	210
0	511	25.6	212
0	513	25.7	214
0	515	25.8	216
0	517	25.9	218
0	519	26	220
0	521	26.1	222
0	523	26.2	224
0	525	26.3	226
0	527	26.4	228
0	529	26.5	230
0	531	26.6	232
0	533	26.7	234
0	535	26.8	236
0	537	26.9	238
0	539	27	240
0	541	27.1	242
0	543	27.2	244
0	545	27.3	246
0	547	27.4	248
0	549	27.5	250
0	551	27.6	252
0	553	27.7	254
0	555	27.8	256
0	557	27.9	258
0	559	28	260
0	561	28.1	262
0	563	28.2	264
0	565	28.3	266
0	567	28.4	268
0	569	28.5	270
0	571	28.6	272
0	573	28.7	274
0	575	28.8	276
0	577	28.9	278
0	579	29	280
0	581	29.1	282
0	583	29.2	284
0	585	29.3	286
0	587	29.4	288
0	589	29.5	290
0	591	29.6	292
0	593	29.7	294
0	595	29.8	296
0	597	29.9	298
0	599	30	300
0	601	864000	300
1	0	0	50
1	1	0.1	50
1	3	0.2	50
1	5	0.3	50
1	7	0.4	50
1	9	0.5	50
1	11	0.6	50
1	13	0.7	50
1	15	0.8	50
1	17	0.9	50
1	19	1	50
1	21	1.1	50
1	23	1.2	50
1	25	1.3	50
1	27	1.4	50
1	29	1.5	50
1	31	1.6	50
1	33	1.7	50
1	35	1.8	50
1	37	1.9	50
1	39	2	50
1	41	2.1	50
1	43	2.2	50
1	45	2.3	50
1	47	2.4	50
1	49	2.5	50
1	51	2.6	50
1	53	2.7	50
1	55	2.8	50
1	57	2.9	50
1	59	3	50
1	61	3.1	50
1	63	3.2	50
1	65	3.3	50
1	67	3.4	50
1	69	3.5	50
1	71	3.6	50
1	73	3.7	50
1	75	3.8	50
1	77	3.9	50
1	79	4	50
1	81	4.1	50
1	83	4.2	50
1	85	4.3	50
1	87	4.4	50
1	89	4.5	50
1	91	4.6	50
1	93	4.7	50
1	95	4.8	50
1	97	4.9	50
1	99	5	50
1	101	5.1	50
1	103	5.2	50
1	105	5.3	50
1	107	5.4	50
1	109	5.5	50
1	111	5.6	50
1	113	5.7	50
1	115	5.8	50
1	117	5.9	50
1	119	6	50
1	121	6.1	50
1	123	6.2	50
1	125	6.3	50
1	127	6.4	50
1	129	6.5	50
1	131	6.6	50
1	133	6.7	50
1	135	6.8	50
1	137	6.9	50
1	139	7	50
1	141	7.1	50
1	143	7.2	50
1	145	7.3	50
1	147	7.4	50
1	149	7.5	50
1	151	7.6	50
1	153	7.7	50
1	155	7.8	50
1	157	7.9	50
1	159	8	50
1	161	8.1	50
1	163	8.2	50
1	165	8.3	50
1	167	8.4	50
1	169	8.5	50
1	171	8.6	50
1	173	8.7	50
1	175	8.8	50
1	177	8.9	50
1	179	9	50
1	181	9.1	50
1	183	9.2	50
1	185	9.3	50
1	187	9.4	50
1	189	9.5	50
1	191	9.6	50
1	193	9.7	50
1	195	9.8	50
1	197	9.9	50
1	199	10	50
1	201	10.1	50.5
1	203	10.2	51
1	205	10.3	51.5
1	207	10.4	52
1	209	10.5	52.5
1	211	10.6	53
1	213	10.7	53.5
1	215	10.8	54
1	217	10.9	54.5
1	219	11	55
1	221	11.1	55.5
1	223	11.2	56
1	225	11.3	56.5
1	227	11.4	57
1	229	11.5	57.5
1	231	11.6	58
1	233	11.7	58.5
1	235	11.8	59
1	237	11.9	59.5
1	239	12	60
1	241	12.1	60.5
1	243	12.2	61
1	245	12.3	61.5
1	247	12.4	62
1	249	12.5	62.5
1	251	12.6	63
1	253	12.7	63.5
1	255	12.8	64
1	257	12.9	64.5
1	259	13	65
1	261	13.1	65.5
1	263	13.2	66
1	265	13.3	66.5
1	267	13.4	67
1	269	13.5	67.5
1	271	13.6	68
1	273	13.7	68.5
1	275	13.8	69
1	277	13.9	69.5
1	279	14	70
1	281	14.1	70.5
1	283	14.2	71
1	285	14.3	71.5
1	287	14.4	72
1	289	14.5	72.5
1	291	14.6	73
1	293	14.7	73.5
1	295	14.8	74
1	297	14.9	74.5
1	299	15	75
1	301	15.1	75.5
1	303	15.2	76
1	305	15.3	76.5
1	307	15.4	77
1	309	15.5	77.5
1	311	15.6	78
1	313	15.7	78.5
1	315	15.8	79
1	317	15.9	79.5
1	319	16	80
1	321	16.1	80.5
1	323	16.2	81
1	325	16.3	81.5
1	327	16.4	82
1	329	16.5	82.5
1	331	16.6	83
1	333	16.7	83.5
1	335	16.8	84
1	337	16.9	84.5
1	339	17	85
1	341	17.1	85.5
1	343	17.2	86
1	345	17.3	86.5
1	347	17.4	87
1	349	17.5	87.5
1	351	17.6	88
1	353	17.7	88.5
1	355	17.8	89
1	357	17.9	89.5
1	359	18	90
1	361	18.1	90.5
1	363	18.2	91
1	365	18.3	91.5
1	367	18.4	92
1	369	18.5	92.5
1	371	18.6	93
1	373	18.7	93.5
1	375	18.8	94
1	377	18.9	94.5
1	379	19	95
1	381	19.1	95.5
1	383	19.2	96
1	385	19.3	96.5
1	387	19.4	97
1	389	19.5	97.5
1	391	19.6	98
1	393	19.7	98.5
1	395	19.8	99
1	397	19.9	99.5
1	399	20	100
1	401	20.1	100
1	403	20.2	100
1	405	20.3	100
1	407	20.4	100
1	409	20.5	100
1	411	20.6	100
1	413	20.7	100
1	415	20.8	100
1	417	20.9	100
1	419	21	100
1	421	21.1	100
1	423	21.2	100
1	425	21.3	100
1	427	21.4	100
1	429	21.5	100
1	431	21.6	100
1	433	21.7	100
1	435	21.8	100
1	437	21.9	100
1	439	22	100
1	441	22.1	100
1	443	22.2	100
1	445	22.3	100
1	447	22.4	100
1	449	22.5	100
1	451	22.6	100
1	453	22.7	100
1	455	22.8	100
1	457	22.9	100
1	459	23	100
1	461	23.1	100
1	463	23.2	100
1	465	23.3	100
1	467	23.4	100
1	469	23.5	100
1	471	23.6	100
1	473	23.7	100
1	475	23.8	100
1	477	23.9	100
1	479	24	100
1	481	24.1	100
1	483	24.2	100
1	485	24.3	100
1	487	24.4	100
1	489	24.5	100
1	491	24.6	100
1	493	24.7	100
1	495	24.8	100
1	497	24.9	100
1	499	25	100
1	501	25.1	100
1	503	25.2	100
1	505	25.3	100
1	507	25.4	100
1	509	25.5	100
1	511	25.6	100
1	513	25.7	100
1	515	25.8	100
1	517	25.9	100
1	519	26	100
1	521	26.1	100
1	523	26.2	100
1	525	26.3	100
1	527	26.4	100
1	529	26.5	100
1	531	26.6	100
1	533	26.7	100
1	535	26.8	100
1	537	26.9	100
1	539	27	100
1	541	27.1	100
1	543	27.2	100
1	545	27.3	100
1	547	27.4	100
1	549	27.5	100
1	551	27.6	100
1	553	27.7	100
1	555	27.8	100
1	557	27.9	100
1	559	28	100
1	561	28.1	100
1	563	28.2	100
1	565	28.3	100
1	567	28.4	100
1	569	28.5	100
1	571	28.6	100
1	573	28.7	100
1	575	28.8	100
1	577	28.9	100
1	579	29	100
1	581	29.1	100
1	583	29.2	100
1	585	29.3	100
1	587	29.4	100
1	589	29.5	100
1	591	29.6	100
1	593	29.7	100
1	595	29.8	100
1	597	29.9	100
1	599	30	100
1	601	864000	100
2	0	0	0
2	1	0.1	0
2	3	0.2	0
2	5	0.3	0
2	7	0.4	0
2	9	0.5	0
2	11	0.6	0
2	13	0.7	0
2	15	0.8	0
2	17	0.9	0
2	19	1	0
2	21	1.1	0
2	23	1.2	0
2	25	1.3	0
2	27	1.4	0
2	29	1.5	0
2	31	1.6	0
2	33	1.7	0
2	35	1.8	0
2	37	1.9	0
2	39	2	0
2	41	2.1	0
2	43	2.2	0
2	45	2.3	0
2	47	2.4	0
2	49	2.5	0
2	51	2.6	0
2	53	2.7	0
2	55	2.8	0
2	57	2.9	0
2	59	3	0
2	61	3.1	0
2	63	3.2	0
2	65	3.3	0
2	67	3.4	0
2	69	3.5	0
2	71	3.6	0
2	73	3.7	0
2	75	3.8	0
2	77	3.9	0
2	79	4	0
2	81	4.1	0
2	83	4.2	0
2	85	4.3	0
2	87	4.4	0
2	89	4.5	0
2	91	4.6	0
2	93	4.7	0
2	95	4.8	0
2	97	4.9	0
2	99	5	0
2	101	5.1	0
2	103	5.2	0
2	105	5.3	0
2	107	5.4	0
2	109	5.5	0
2	111	5.6	0
2	113	5.7	0
2	115	5.8	0
2	117	5.9	0
2	119	6	0
2	121	6.1	0
2	123	6.2	0
2	125	6.3	0
2	127	6.4	0
2	129	6.5	0
2	131	6.6	0
2	133	6.7	0
2	135	6.8	0
2	137	6.9	0
2	139	7	0
2	141	7.1	0
2	143	7.2	0
2	145	7.3	0
2	147	7.4	0
2	149	7.5	0
2	151	7.6	0
2	153	7.7	0
2	155	7.8	0
2	157	7.9	0
2	159	8	0
2	161	8.1	0
2	163	8.2	0
2	165	8.3	0
2	167	8.4	0
2	169	8.5	0
2	171	8.6	0
2	173	8.7	0
2	175	8.8	0
2	177	8.9	0
2	179	9	0
2	181	9.1	0
2	183	9.2	0
2	185	9.3	0
2	187	9.4	0
2	189	9.5	0
2	191	9.6	0
2	193	9.7	0
2	195	9.8	0
2	197	9.9	0
2	199	10	0
2	201	10.1	0
2	203	10.2	0
2	205	10.3	0
2	207	10.4	0
2	209	10.5	0
2	211	10.6	0
2	213	10.7	0
2	215	10.8	0
2	217	10.9	0
2	219	11	0
2	221	11.1	0
2	223	11.2	0
2	225	11.3	0
2	227	11.4	0
2	229	11.5	0
2	231	11.6	0
2	233	11.7	0
2	235	11.8	0
2	237	11.9	0
2	239	12	0
2	241	12.1	0
2	243	12.2	0
2	245	12.3	0
2	247	12.4	0
2	249	12.5	0
2	251	12.6	0
2	253	12.7	0
2	255	12.8	0
2	257	12.9	0
2	259	13	0
2	261	13.1	0
2	263	13.2	0
2	265	13.3	0
2	267	13.4	0
2	269	13.5	0
2	271	13.6	0
2	273	13.7	0
2	275	13.8	0
2	277	13.9	0
2	279	14	0
2	281	14.1	0
2	283	14.2	0
2	285	14.3	0
2	287	14.4	0
2	289	14.5	0
2	291	14.6	0
2	293	14.7	0
2	295	14.8	0
2	297	14.9	0
2	299	15	0
2	301	15.1	0
2	303	15.2	0
2	305	15.3	0
2	307	15.4	0
2	309	15.5	0
2	311	15.6	0
2	313	15.7	0
2	315	15.8	0
2	317	15.9	0
2	319	16	0
2	321	16.1	0
2	323	16.2	0
2	325	16.3	0
2	327	16.4	0
2	329	16.5	0
2	331	16.6	0
2	333	16.7	0
2	335	16.8	0
2	337	16.9	0
2	339	17	0
2	341	17.1	0
2	343	17.2	0
2	345	17.3	0
2	347	17.4	0
2	349	17.5	0
2	351	17.6	0
2	353	17.7	0
2	355	17.8	0
2	357	17.9	0
2	359	18	0
2	361	18.1	0
2	363	18.2	0
2	365	18.3	0
2	367	18.4	0
2	369	18.5	0
2	371	18.6	0
2	373	18.7	0
2	375	18.8	0
2	377	18.9	0
2	379	19	0
2	381	19.1	0
2	383	19.2	0
2	385	19.3	0
2	387	19.4	0
2	389	19.5	0
2	391	19.6	0
2	393	19.7	0
2	395	19.8	0
2	397	19.9	0
2	399	20	0
2	401	20.1	0
2	403	20.2	0
2	405	20.3	0
2	407	20.4	0
2	409	20.5	0
2	411	20.6	0
2	413	20.7	0
2	415	20.8	0
2	417	20.9	0
2	419	21	0
2	421	21.1	0
2	423	21.2	0
2	425	21.3	0
2	427	21.4	0
2	429	21.5	0
2	431	21.6	0
2	433	21.7	0
2	435	21.8	0
2	437	21.9	0
2	439	22	0
2	441	22.1	0
2	443	22.2	0
2	445	22.3	0
2	447	22.4	0
2	449	22.5	0
2	451	22.6	0
2	453	22.7	0
2	455	22.8	0
2	457	22.9	0
2	459	23	0
2	461	23.1	0
2	463	23.2	0
2	465	23.3	0
2	467	23.4	0
2	469	23.5	0
2	471	23.6	0
2	473	23.7	0
2	475	23.8	0
2	477	23.9	0
2	479	24	0
2	481	24.1	0
2	483	24.2	0
2	485	24.3	0
2	487	24.4	0
2	489	24.5	0
2	491	24.6	0
2	493	24.7	0
2	495	24.8	0
2	497	24.9	0
2	499	25	0
2	501	25.1	0
2	503	25.2	0
2	505	25.3	0
2	507	25.4	0
2	509	25.5	0
2	511	25.6	0
2	513	25.7	0
2	515	25.8	0
2	517	25.9	0
2	519	26	0
2	521	26.1	0
2	523	26.2	0
2	525	26.3	0
2	527	26.4	0
2	529	26.5	0
2	531	26.6	0
2	533	26.7	0
2	535	26.8	0
2	537	26.9	0
2	539	27	0
2	541	27.1	0
2	543	27.2	0
2	545	27.3	0
2	547	27.4	0
2	549	27.5	0
2	551	27.6	0
2	553	27.7	0
2	555	27.8	0
2	557	27.9	0
2	559	28	0
2	561	28.1	0
2	563	28.2	0
2	565	28.3	0
2	567	28.4	0
2	569	28.5	0
2	571	28.6	0
2	573	28.7	0
2	575	28.8	0
2	577	28.9	0
2	579	29	0
2	581	29.1	0
2	583	29.2	0
2	585	29.3	0
2	587	29.4	0
2	589	29.5	0
2	591	29.6	0
2	593	29.7	0
2	595	29.8	0
2	597	29.9	0
2	599	30	0
2	601	864000	0
3	0	0	50
3	1	0.1	50
3	3	0.2	50
3	5	0.3	50
3	7	0.4	50
3	9	0.5	50
3	11	0.6	50
3	13	0.7	50
3	15	0.8	50
3	17	0.9	50
3	19	1	50
3	21	1.1	50
3	23	1.2	50
3	25	1.3	50
3	27	1.4	50
3	29	1.5	50
3	31	1.6	50
3	33	1.7	50
3	35	1.8	50
3	37	1.9	50
3	39	2	50
3	41	2.1	50
3	43	2.2	50
3	45	2.3	50
3	47	2.4	50
3	49	2.5	50
3	51	2.6	50
3	53	2.7	50
3	55	2.8	50
3	57	2.9	50
3	59	3	50
3	61	3.1	50
3	63	3.2	50
3	65	3.3	50
3	67	3.4	50
3	69	3.5	50
3	71	3.6	50
3	73	3.7	50
3	75	3.8	50
3	77	3.9	50
3	79	4	50
3	81	4.1	50
3	83	4.2	50
3	85	4.3	50
3	87	4.4	50
3	89	4.5	50
3	91	4.6	50
3	93	4.7	50
3	95	4.8	50
3	97	4.9	50
3	99	5	50
3	101	5.1	50
3	103	5.2	50
3	105	5.3	50
3	107	5.4	50
3	109	5.5	50
3	111	5.6	50
3	114	5.7	50
3	116	5.8	50
3	118	5.9	50
3	120	6	50
3	122	6.1	50
3	124	6.2	50
3	126	6.3	50
3	128	6.4	50
3	130	6.5	50
3	132	6.6	50
3	134	6.7	50
3	136	6.8	50
3	138	6.9	50
3	140	7	50
3	142	7.1	50
3	144	7.2	50
3	146	7.3	50
3	148	7.4	50
3	150	7.5	50
3	152	7.6	50
3	154	7.7	50
3	156	7.8	50
3	158	7.9	50
3	160	8	50
3	162	8.1	50
3	164	8.2	50
3	166	8.3	50
3	168	8.4	50
3	170	8.5	50
3	172	8.6	50
3	174	8.7	50
3	176	8.8	50
3	178	8.9	50
3	180	9	50
3	182	9.1	50
3	184	9.2	50
3	186	9.3	50
3	188	9.4	50
3	190	9.5	50
3	192	9.6	50
3	194	9.7	50
3	196	9.8	50
3	198	9.9	50
3	200	10	50
3	202	10.1	50.5
3	204	10.2	51
3	206	10.3	51.5
3	208	10.4	52
3	210	10.5	52.5
3	212	10.6	53
3	214	10.7	53.5
3	216	10.8	54
3	218	10.9	54.5
3	220	11	55
3	222	11.1	55.5
3	224	11.2	56
3	226	11.3	56.5
3	228	11.4	57
3	230	11.5	57.5
3	232	11.6	58
3	234	11.7	58.5
3	236	11.8	59
3	238	11.9	59.5
3	240	12	60
3	242	12.1	60.5
3	244	12.2	61
3	246	12.3	61.5
3	248	12.4	62
3	250	12.5	62.5
3	252	12.6	63
3	254	12.7	63.5
3	256	12.8	64
3	258	12.9	64.5
3	260	13	65
3	262	13.1	65.5
3	264	13.2	66
3	266	13.3	66.5
3	268	13.4	67
3	270	13.5	67.5
3	272	13.6	68
3	274	13.7	68.5
3	276	13.8	69
3	278	13.9	69.5
3	280	14	70
3	282	14.1	70.5
3	284	14.2	71
3	286	14.3	71.5
3	288	14.4	72
3	290	14.5	72.5
3	292	14.6	73
3	294	14.7	73.5
3	296	14.8	74
3	298	14.9	74.5
3	300	15	75
3	302	15.1	75.5
3	304	15.2	76
3	306	15.3	76.5
3	308	15.4	77
3	310	15.5	77.5
3	312	15.6	78
3	314	15.7	78.5
3	316	15.8	79
3	318	15.9	79.5
3	320	16	80
3	322	16.1	80.5
3	324	16.2	81
3	326	16.3	81.5
3	328	16.4	82
3	330	16.5	82.5
3	332	16.6	83
3	334	16.7	83.5
3	336	16.8	84
3	338	16.9	84.5
3	340	17	85
3	342	17.1	85.5
3	344	17.2	86
3	346	17.3	86.5
3	348	17.4	87
3	350	17.5	87.5
3	352	17.6	88
3	354	17.7	88.5
3	356	17.8	89
3	358	17.9	89.5
3	360	18	90
3	362	18.1	90.5
3	364	18.2	91
3	366	18.3	91.5
3	368	18.4	92
3	370	18.5	92.5
3	372	18.6	93
3	374	18.7	93.5
3	376	18.8	94
3	378	18.9	94.5
3	380	19	95
3	382	19.1	95.5
3	384	19.2	96
3	386	19.3	96.5
3	388	19.4	97
3	390	19.5	97.5
3	392	19.6	98
3	394	19.7	98.5
3	396	19.8	99
3	398	19.9	99.5
3	400	20	100
3	402	20.1	102
3	404	20.2	104
3	406	20.3	106
3	408	20.4	108
3	410	20.5	110
3	412	20.6	112
3	414	20.7	114
3	416	20.8	116
3	418	20.9	118
3	420	21	120
3	422	21.1	122
3	424	21.2	124
3	426	21.3	126
3	428	21.4	128
3	430	21.5	130
3	432	21.6	132
3	434	21.7	134
3	436	21.8	136
3	438	21.9	138
3	440	22	140
3	442	22.1	142
3	444	22.2	144
3	446	22.3	146
3	448	22.4	148
3	450	22.5	150
3	452	22.6	152
3	454	22.7	154
3	456	22.8	156
3	458	22.9	158
3	460	23	160
3	462	23.1	162
3	464	23.2	164
3	466	23.3	166
3	468	23.4	168
3	470	23.5	170
3	472	23.6	172
3	474	23.7	174
3	476	23.8	176
3	478	23.9	178
3	480	24	180
3	482	24.1	182
3	484	24.2	184
3	486	24.3	186
3	488	24.4	188
3	490	24.5	190
3	492	24.6	192
3	494	24.7	194
3	496	24.8	196
3	498	24.9	198
3	500	25	200
3	502	25.1	202
3	504	25.2	204
3	506	25.3	206
3	508	25.4	208
3	510	25.5	210
3	512	25.6	212
3	514	25.7	214
3	516	25.8	216
3	518	25.9	218
3	520	26	220
3	522	26.1	222
3	524	26.2	224
3	526	26.3	226
3	528	26.4	228
3	530	26.5	230
3	532	26.6	232
3	534	26.7	234
3	536	26.8	236
3	538	26.9	238
3	540	27	240
3	542	27.1	242
3	544	27.2	244
3	546	27.3	246
3	548	27.4	248
3	550	27.5	250
3	552	27.6	252
3	554	27.7	254
3	556	27.8	256
3	558	27.9	258
3	560	28	260
3	562	28.1	262
3	564	28.2	264
3	566	28.3	266
3	568	28.4	268
3	570	28.5	270
3	572	28.6	272
3	574	28.7	274
3	576	28.8	276
3	578	28.9	278
3	580	29	280
3	582	29.1	282
3	584	29.2	284
3	586	29.3	286
3	588	29.4	288
3	590	29.5	290
3	592	29.6	292
3	594	29.7	294
3	596	29.8	296
3	598	29.9	298
3	600	30	300
3	601	864000	300
4	0	0	50
4	1	0.1	50
4	3	0.2	50
4	5	0.3	50
4	7	0.4	50
4	9	0.5	50
4	11	0.6	50
4	13	0.7	50
4	15	0.8	50
4	17	0.9	50
4	19	1	50
4	21	1.1	50
4	23	1.2	50
4	25	1.3	50
4	27	1.4	50
4	29	1.5	50
4	31	1.6	50
4	33	1.7	50
4	35	1.8	50
4	37	1.9	50
4	39	2	50
4	41	2.1	50
4	43	2.2	50
4	45	2.3	50
4	47	2.4	50
4	49	2.5	50
4	51	2.6	50
4	53	2.7	50
4	55	2.8	50
4	57	2.9	50
4	59	3	50
4	61	3.1	50
4	63	3.2	50
4	65	3.3	50
4	67	3.4	50
4	69	3.5	50
4	71	3.6	50
4	73	3.7	50
4	75	3.8	50
4	77	3.9	50
4	79	4	50
4	81	4.1	50
4	83	4.2	50
4	85	4.3	50
4	87	4.4	50
4	89	4.5	50
4	91	4.6	50
4	93	4.7	50
4	95	4.8	50
4	97	4.9	50
4	99	5	50
4	101	5.1	50
4	103	5.2	50
4	105	5.3	50
4	107	5.4	50
4	109	5.5	50
4	111	5.6	50
4	114	5.7	50
4	116	5.8	50
4	118	5.9	50
4	120	6	50
4	122	6.1	50
4	124	6.2	50
4	126	6.3	50
4	128	6.4	50
4	130	6.5	50
4	132	6.6	50
4	134	6.7	50
4	136	6.8	50
4	138	6.9	50
4	140	7	50
4	142	7.1	50
4	144	7.2	50
4	146	7.3	50
4	148	7.4	50
4	150	7.5	50
4	152	7.6	50
4	154	7.7	50
4	156	7.8	50
4	158	7.9	50
4	160	8	50
4	162	8.1	50
4	164	8.2	50
4	166	8.3	50
4	168	8.4	50
4	170	8.5	50
4	172	8.6	50
4	174	8.7	50
4	176	8.8	50
4	178	8.9	50
4	180	9	50
4	182	9.1	50
4	184	9.2	50
4	186	9.3	50
4	188	9.4	50
4	190	9.5	50
4	192	9.6	50
4	194	9.7	50
4	196	9.8	50
4	198	9.9	50
4	200	10	50
4	202	10.1	51.5
4	204	10.2	53
4	206	10.3	54.5
4	208	10.4	56
4	210	10.5	57.5
4	212	10.6	59
4	214	10.7	60.5
4	216	10.8	62
4	218	10.9	63.5
4	220	11	65
4	222	11.1	66.5
4	224	11.2	68
4	226	11.3	69.5
4	228	11.4	71
4	230	11.5	72.5
4	232	11.6	74
4	234	11.7	75.5
4	236	11.8	77
4	238	11.9	78.5
4	240	12	80
4	242	12.1	81.5
4	244	12.2	83
4	246	12.3	84.5
4	248	12.4	86
4	250	12.5	87.5
4	252	12.6	89
4	254	12.7	90.5
4	256	12.8	92
4	258	12.9	93.5
4	260	13	95
4	262	13.1	96.5
4	264	13.2	98
4	266	13.3	99.5
4	268	13.4	101
4	270	13.5	102.5
4	272	13.6	104
4	274	13.7	105.5
4	276	13.8	107
4	278	13.9	108.5
4	280	14	110
4	282	14.1	111.5
4	284	14.2	113
4	286	14.3	114.5
4	288	14.4	116
4	290	14.5	117.5
4	292	14.6	119
4	294	14.7	120.5
4	296	14.8	122
4	298	14.9	123.5
4	300	15	125
4	302	15.1	126.5
4	304	15.2	128
4	306	15.3	129.5
4	308	15.4	131
4	310	15.5	132.5
4	312	15.6	134
4	314	15.7	135.5
4	316	15.8	137
4	318	15.9	138.5
4	320	16	140
4	322	16.1	141.5
4	324	16.2	143
4	326	16.3	144.5
4	328	16.4	146
4	330	16.5	147.5
4	332	16.6	149
4	334	16.7	150.5
4	336	16.8	152
4	338	16.9	153.5
4	340	17	155
4	342	17.1	156.5
4	344	17.2	158
4	346	17.3	159.5
4	348	17.4	161
4	350	17.5	162.5
4	352	17.6	164
4	354	17.7	165.5
4	356	17.8	167
4	358	17.9	168.5
4	360	18	170
4	362	18.1	171.5
4	364	18.2	173
4	366	18.3	174.5
4	368	18.4	176
4	370	18.5	177.5
4	372	18.6	179
4	374	18.7	180.5
4	376	18.8	182
4	378	18.9	183.5
4	380	19	185
4	382	19.1	186.5
4	384	19.2	188
4	386	19.3	189.5
4	388	19.4	191
4	390	19.5	192.5
4	392	19.6	194
4	394	19.7	195.5
4	396	19.8	197
4	398	19.9	198.5
4	400	20	200
4	402	20.1	200
4	404	20.2	200
4	406	20.3	200
4	408	20.4	200
4	410	20.5	200
4	412	20.6	200
4	414	20.7	200
4	416	20.8	200
4	418	20.9	200
4	420	21	200
4	422	21.1	200
4	424	21.2	200
4	426	21.3	200
4	428	21.4	200
4	430	21.5	200
4	432	21.6	200
4	434	21.7	200
4	436	21.8	200
4	438	21.9	200
4	440	22	200
4	442	22.1	200
4	444	22.2	200
4	446	22.3	200
4	448	22.4	200
4	450	22.5	200
4	452	22.6	200
4	454	22.7	200
4	456	22.8	200
4	458	22.9	200
4	460	23	200
4	462	23.1	200
4	464	23.2	200
4	466	23.3	200
4	468	23.4	200
4	470	23.5	200
4	472	23.6	200
4	474	23.7	200
4	476	23.8	200
4	478	23.9	200
4	480	24	200
4	482	24.1	200
4	484	24.2	200
4	486	24.3	200
4	488	24.4	200
4	490	24.5	200
4	492	24.6	200
4	494	24.7	200
4	496	24.8	200
4	498	24.9	200
4	500	25	200
4	502	25.1	200
4	504	25.2	200
4	506	25.3	200
4	508	25.4	200
4	510	25.5	200
4	512	25.6	200
4	514	25.7	200
4	516	25.8	200
4	518	25.9	200
4	520	26	200
4	522	26.1	200
4	524	26.2	200
4	526	26.3	200
4	528	26.4	200
4	530	26.5	200
4	532	26.6	200
4	534	26.7	200
4	536	26.8	200
4	538	26.9	200
4	540	27	200
4	542	27.1	200
4	544	27.2	200
4	546	27.3	200
4	548	27.4	200
4	550	27.5	200
4	552	27.6	200
4	554	27.7	200
4	556	27.8	200
4	558	27.9	200
4	560	28	200
4	562	28.1	200
4	564	28.2	200
4	566	28.3	200
4	568	28.4	200
4	570	28.5	200
4	572	28.6	200
4	574	28.7	200
4	576	28.8	200
4	578	28.9	200
4	580	29	200
4	582	29.1	200
4	584	29.2	200
4	586	29.3	200
4	588	29.4	200
4	590	29.5	200
4	592	29.6	200
4	594	29.7	200
4	596	29.8	200
4	598	29.9	200
4	600	30	200
4	601	864000	200
5	0	0	0
5	1	0.1	0
5	3	0.2	0
5	5	0.3	0
5	7	0.4	0
5	9	0.5	0
5	11	0.6	0
5	13	0.7	0
5	15	0.8	0
5	17	0.9	0
5	19	1	0
5	21	1.1	0
5	23	1.2	0
5	25	1.3	0
5	27	1.4	0
5	29	1.5	0
5	31	1.6	0
5	33	1.7	0
5	35	1.8	0
5	37	1.9	0
5	39	2	0
5	41	2.1	0
5	43	2.2	0
5	45	2.3	0
5	47	2.4	0
5	49	2.5	0
5	51	2.6	0
5	53	2.7	0
5	55	2.8	0
5	57	2.9	0
5	59	3	0
5	61	3.1	0
5	63	3.2	0
5	65	3.3	0
5	67	3.4	0
5	69	3.5	0
5	71	3.6	0
5	73	3.7	0
5	75	3.8	0
5	77	3.9	0
5	79	4	0
5	81	4.1	0
5	83	4.2	0
5	85	4.3	0
5	87	4.4	0
5	89	4.5	0
5	91	4.6	0
5	93	4.7	0
5	95	4.8	0
5	97	4.9	0
5	99	5	0
5	101	5.1	0
5	103	5.2	0
5	105	5.3	0
5	107	5.4	0
5	109	5.5	0
5	111	5.6	0
5	114	5.7	0
5	116	5.8	0
5	118	5.9	0
5	120	6	0
5	122	6.1	0
5	124	6.2	0
5	126	6.3	0
5	128	6.4	0
5	130	6.5	0
5	132	6.6	0
5	134	6.7	0
5	136	6.8	0
5	138	6.9	0
5	140	7	0
5	142	7.1	0
5	144	7.2	0
5	146	7.3	0
5	148	7.4	0
5	150	7.5	0
5	152	7.6	0
5	154	7.7	0
5	156	7.8	0
5	158	7.9	0
5	160	8	0
5	162	8.1	0
5	164	8.2	0
5	166	8.3	0
5	168	8.4	0
5	170	8.5	0
5	172	8.6	0
5	174	8.7	0
5	176	8.8	0
5	178	8.9	0
5	180	9	0
5	182	9.1	0
5	184	9.2	0
5	186	9.3	0
5	188	9.4	0
5	190	9.5	0
5	192	9.6	0
5	194	9.7	0
5	196	9.8	0
5	198	9.9	0
5	200	10	0
5	202	10.1	0
5	204	10.2	0
5	206	10.3	0
5	208	10.4	0
5	210	10.5	0
5	212	10.6	0
5	214	10.7	0
5	216	10.8	0
5	218	10.9	0
5	220	11	0
5	222	11.1	0
5	224	11.2	0
5	226	11.3	0
5	228	11.4	0
5	230	11.5	0
5	232	11.6	0
5	234	11.7	0
5	236	11.8	0
5	238	11.9	0
5	240	12	0
5	242	12.1	0
5	244	12.2	0
5	246	12.3	0
5	248	12.4	0
5	250	12.5	0
5	252	12.6	0
5	254	12.7	0
5	256	12.8	0
5	258	12.9	0
5	260	13	0
5	262	13.1	0
5	264	13.2	0
5	266	13.3	0
5	268	13.4	0
5	270	13.5	0
5	272	13.6	0
5	274	13.7	0
5	276	13.8	0
5	278	13.9	0
5	280	14	0
5	282	14.1	0
5	284	14.2	0
5	286	14.3	0
5	288	14.4	0
5	290	14.5	0
5	292	14.6	0
5	294	14.7	0
5	296	14.8	0
5	298	14.9	0
5	300	15	0
5	302	15.1	0
5	304	15.2	0
5	306	15.3	0
5	308	15.4	0
5	310	15.5	0
5	312	15.6	0
5	314	15.7	0
5	316	15.8	0
5	318	15.9	0
5	320	16	0
5	322	16.1	0
5	324	16.2	0
5	326	16.3	0
5	328	16.4	0
5	330	16.5	0
5	332	16.6	0
5	334	16.7	0
5	336	16.8	0
5	338	16.9	0
5	340	17	0
5	342	17.1	0
5	344	17.2	0
5	346	17.3	0
5	348	17.4	0
5	350	17.5	0
5	352	17.6	0
5	354	17.7	0
5	356	17.8	0
5	358	17.9	0
5	360	18	0
5	362	18.1	0
5	364	18.2	0
5	366	18.3	0
5	368	18.4	0
5	370	18.5	0
5	372	18.6	0
5	374	18.7	0
5	376	18.8	0
5	378	18.9	0
5	380	19	0
5	382	19.1	0
5	384	19.2	0
5	386	19.3	0
5	388	19.4	0
5	390	19.5	0
5	392	19.6	0
5	394	19.7	0
5	396	19.8	0
5	398	19.9	0
5	400	20	0
5	402	20.1	0
5	404	20.2	0
5	406	20.3	0
5	408	20.4	0
5	410	20.5	0
5	412	20.6	0
5	414	20.7	0
5	416	20.8	0
5	418	20.9	0
5	420	21	0
5	422	21.1	0
5	424	21.2	0
5	426	21.3	0
5	428	21.4	0
5	430	21.5	0
5	432	21.6	0
5	434	21.7	0
5	436	21.8	0
5	438	21.9	0
5	440	22	0
5	442	22.1	0
5	444	22.2	0
5	446	22.3	0
5	448	22.4	0
5	450	22.5	0
5	452	22.6	0
5	454	22.7	0
5	456	22.8	0
5	458	22.9	0
5	460	23	0
5	462	23.1	0
5	464	23.2	0
5	466	23.3	0
5	468	23.4	0
5	470	23.5	0
5	472	23.6	0
5	474	23.7	0
5	476	23.8	0
5	478	23.9	0
5	480	24	0
5	482	24.1	0
5	484	24.2	0
5	486	24.3	0
5	488	24.4	0
5	490	24.5	0
5	492	24.6	0
5	494	24.7	0
5	496	24.8	0
5	498	24.9	0
5	500	25	0
5	502	25.1	0
5	504	25.2	0
5	506	25.3	0
5	508	25.4	0
5	510	25.5	0
5	512	25.6	0
5	514	25.7	0
5	516	25.8	0
5	518	25.9	0
5	520	26	0
5	522	26.1	0
5	524	26.2	0
5	526	26.3	0
5	528	26.4	0
5	530	26.5	0
5	532	26.6	0
5	534	26.7	0
5	536	26.8	0
5	538	26.9	0
5	540	27	0
5	542	27.1	0
5	544	27.2	0
5	546	27.3	0
5	548	27.4	0
5	550	27.5	0
5	552	27.6	0
5	554	27.7	0
5	556	27.8	0
5	558	27.9	0
5	560	28	0
5	562	28.1	0
5	564	28.2	0
5	566	28.3	0
5	568	28.4	0
5	570	28.5	0
5	572	28.6	0
5	574	28.7	0
5	576	28.8	0
5	578	28.9	0
5	580	29	0
5	582	29.1	0
5	584	29.2	0
5	586	29.3	0
5	588	29.4	0
5	590	29.5	0
5	592	29.6	0
5	594	29.7	0
5	596	29.8	0
5	598	29.9	0
5	600	30	0
5	601	864000	0

